Version 4
SHEET 1 1352 840
WIRE -256 -128 -256 -144
WIRE 784 -64 752 -64
WIRE 944 -64 784 -64
WIRE -208 -48 -256 -48
WIRE -192 -48 -208 -48
WIRE -256 0 -256 -48
WIRE 48 0 0 0
WIRE 96 0 48 0
WIRE 288 0 96 0
WIRE -208 16 -208 -48
WIRE 704 48 704 16
WIRE 784 48 784 -64
WIRE 784 48 704 48
WIRE 48 80 48 0
WIRE 48 80 -48 80
WIRE 896 80 896 16
WIRE 960 80 896 80
WIRE 992 80 960 80
WIRE 1200 80 1200 16
WIRE 1200 80 1056 80
WIRE 1296 80 1200 80
WIRE 240 112 240 80
WIRE 240 112 128 112
WIRE 320 112 240 112
WIRE 704 112 704 48
WIRE 896 112 896 80
WIRE 1296 112 1296 80
WIRE 784 128 752 128
WIRE 944 128 784 128
WIRE -256 144 -256 96
WIRE -176 144 -256 144
WIRE -256 176 -256 144
WIRE -48 176 -48 80
WIRE -176 192 -176 144
WIRE -176 192 -208 192
WIRE 0 192 -176 192
WIRE 1296 208 1296 176
WIRE 320 224 320 208
WIRE 896 224 896 208
WIRE 896 224 320 224
WIRE 128 240 128 208
WIRE 704 240 704 208
WIRE 704 240 128 240
WIRE 896 240 896 224
WIRE 1200 240 1200 80
WIRE 800 256 752 256
WIRE 944 256 800 256
WIRE 960 256 960 80
WIRE 1248 256 960 256
FLAG 80 192 VIN-
FLAG 368 128 VIN+
FLAG 704 -80 VDD
FLAG 896 -80 VDD
FLAG 896 336 0
FLAG 704 336 0
FLAG 1200 -80 VDD
FLAG 1200 336 0
FLAG 784 128 VBIAS1
FLAG 800 256 VBIAS2
FLAG 1296 208 0
FLAG 240 -16 VDD
FLAG -48 -16 VDD
FLAG -256 272 0
FLAG -48 272 0
FLAG -256 -144 VDD
FLAG -192 -48 VBIAS1
FLAG -176 144 VBIAS2
FLAG 96 0 VBIAS3
FLAG 1248 -64 VBIAS3
SYMBOL pmos 80 112 R0
SYMATTR InstName M1
SYMBOL pmos 368 208 R180
SYMATTR InstName M2
SYMBOL pmos 944 16 R180
SYMATTR InstName M3
SYMBOL pmos 752 16 R180
SYMATTR InstName M4
SYMBOL nmos 944 208 R180
SYMATTR InstName M5
SYMBOL nmos 752 208 R180
SYMATTR InstName M6
SYMBOL nmos 752 336 R180
SYMATTR InstName M7
SYMBOL nmos 944 336 R180
SYMATTR InstName M8
SYMBOL pmos 1248 16 R180
SYMATTR InstName M9
SYMBOL nmos 1248 336 R180
SYMATTR InstName M10
SYMBOL cap 1056 64 R90
WINDOW 0 0 32 VBottom 2
WINDOW 3 32 32 VTop 2
SYMATTR InstName C1
SYMATTR Value Cm
SYMBOL cap 1280 112 R0
SYMATTR InstName C2
SYMATTR Value CL
SYMBOL pmos 288 80 R180
SYMATTR InstName M11
SYMBOL pmos 0 80 R180
SYMATTR InstName M12
SYMBOL nmos 0 272 R180
SYMATTR InstName M13
SYMBOL nmos -208 272 R180
SYMATTR InstName M14
SYMBOL nmos -208 96 R180
SYMATTR InstName M15
SYMBOL current -256 -128 R0
SYMATTR InstName IB
